<flows>
	<!-- flow id="0" from="116069075#0"  begin="0" end="3600" number="1947"/-->
	<flow id="0" from="26524637"  begin="0" end="36000" number="12000"/>
	<flow id="100" from="5965584"  begin="0" end="36000" number="7470"/>
	<flow id="1" from="5965712"  begin="0" end="36000" number="460"/>
	<flow id="2" from="50846782#2"  begin="0" end="36000" number="1100"/>
	<flow id="3" from="5968215#0"  begin="0" end="36000" number="1060"/>
	<flow id="4" from="-5968215#2"  begin="0" end="36000" number="4300"/>
	<flow id="5" from="243728741#0"  begin="0" end="36000" number="2650"/>
	<flow id="6" from="244626184#2"  begin="0" end="36000" number="4370"/>
	<flow id="7" from="5974128"  begin="0" end="36000" number="1200"/>
	<flow id="8" from="50846710#1.45"  begin="0" end="36000" number="1200"/>
	<flow id="9" from="gneE17.147"  begin="0" end="36000" number="4500"/>
	<flow id="10" from="143009954"  begin="0" end="36000" number="4500"/>
</flows>
