<?xml version="1.0" encoding="UTF-8"?>

<!-- generated on Fri Apr 10 02:14:22 2020 by Eclipse SUMO duarouter Version 1.4.0
<configuration xmlns:xsi="http://www.w3.org/2001/XMLSchema-instance" xsi:noNamespaceSchemaLocation="http://sumo.dlr.de/xsd/duarouterConfiguration.xsd">

    <input>
        <net-file value="moco.net.xml"/>
        <additional-files value="type.add.xml"/>
        <route-files value="trips.trips.xml"/>
    </input>

    <output>
        <output-file value="trips.trips.xml.tmp"/>
        <write-trips value="true"/>
    </output>

    <time>
        <begin value="0"/>
        <end value="2000.0"/>
    </time>

    <report>
        <no-warnings value="true"/>
        <ignore-errors value="true"/>
        <no-step-log value="true"/>
    </report>

</configuration>
-->

<routes xmlns:xsi="http://www.w3.org/2001/XMLSchema-instance" xsi:noNamespaceSchemaLocation="http://sumo.dlr.de/xsd/routes_file.xsd">
    <vType id="passenger" minGap="2.00" maxSpeed="27.00" vClass="passenger" carFollowModel="Krauss" sigma="0.5" tau="1.0"/>
    <trip id="0" type="passenger" depart="0.00" from="50846726#0" to="-143329356#0"/>
    <trip id="1" type="passenger" depart="1.00" from="-5987516" to="-5976858#0"/>
    <trip id="2" type="passenger" depart="2.00" from="50846782#1" to="50846755#0"/>
    <trip id="3" type="passenger" depart="3.00" from="5982169#1" to="-50846720#2"/>
    <trip id="4" type="passenger" depart="4.00" from="243728741#3.83" to="-143329356#0"/>
    <trip id="5" type="passenger" depart="5.00" from="-5973964" to="49187078#3"/>
    <trip id="6" type="passenger" depart="6.00" from="-143329356#1" to="-5972211#1"/>
    <trip id="7" type="passenger" depart="7.00" from="50846749" to="49187078#5.22"/>
    <trip id="8" type="passenger" depart="8.00" from="-5976858#0" to="50846720#2"/>
    <trip id="9" type="passenger" depart="9.00" from="5972211#1" to="-142530979"/>
    <trip id="10" type="passenger" depart="10.00" from="5972211#0" to="50846755#2.0"/>
    <trip id="11" type="passenger" depart="11.00" from="116069075#1" to="-5968215#0"/>
    <trip id="12" type="passenger" depart="12.00" from="76697577" to="116069075#0.376"/>
    <trip id="13" type="passenger" depart="13.00" from="-50846720#2" to="-50846720#4"/>
    <trip id="14" type="passenger" depart="14.00" from="5976858#1" to="50846720#6"/>
    <trip id="15" type="passenger" depart="15.00" from="5972211#1" to="50846755#4"/>
    <trip id="16" type="passenger" depart="16.00" from="49187078#5.22" to="76697655#0"/>
    <trip id="17" type="passenger" depart="17.00" from="143329356#0" to="49187078#5.22"/>
    <trip id="18" type="passenger" depart="18.00" from="5974128" to="50846720#8"/>
    <trip id="19" type="passenger" depart="19.00" from="5979291#1" to="50846720#12"/>
    <trip id="20" type="passenger" depart="20.00" from="50846755#2.0" to="-143655835#0"/>
    <trip id="21" type="passenger" depart="21.00" from="-5976858#1" to="-5991176"/>
    <trip id="22" type="passenger" depart="22.00" from="-50846720#10" to="-5976858#1"/>
    <trip id="23" type="passenger" depart="23.00" from="-50846720#4" to="-5988429#0"/>
    <trip id="24" type="passenger" depart="24.00" from="50846726#0" to="116069261"/>
    <trip id="25" type="passenger" depart="25.00" from="142530980" to="-5972515"/>
    <trip id="26" type="passenger" depart="26.00" from="-5986247#2" to="5988429#1"/>
    <trip id="27" type="passenger" depart="27.00" from="50846749" to="50846720#6"/>
    <trip id="28" type="passenger" depart="28.00" from="-5971039#1" to="50846755#4"/>
    <trip id="29" type="passenger" depart="29.00" from="-5968215#2" to="143329356#0"/>
    <trip id="30" type="passenger" depart="30.00" from="gneE17" to="50846726#0"/>
    <trip id="31" type="passenger" depart="31.00" from="49187078#5.22" to="50846755#0.517"/>
    <trip id="32" type="passenger" depart="32.00" from="5976858#1" to="5968215#3"/>
    <trip id="33" type="passenger" depart="33.00" from="-5976858#1" to="-143329356#1"/>
    <trip id="34" type="passenger" depart="34.00" from="-76697654#3" to="-5986247#2"/>
    <trip id="35" type="passenger" depart="35.00" from="-5972515" to="5991176"/>
    <trip id="36" type="passenger" depart="36.00" from="5982169#0" to="114850054#1"/>
    <trip id="37" type="passenger" depart="37.00" from="50846753.54" to="143655835#0"/>
    <trip id="38" type="passenger" depart="38.00" from="5984107" to="244626213#2"/>
    <trip id="39" type="passenger" depart="39.00" from="-5986247#1" to="-5979291#1"/>
    <trip id="40" type="passenger" depart="40.00" from="49187078#5.22" to="-5986247#0"/>
    <trip id="41" type="passenger" depart="41.00" from="50846720#12" to="5982169#1"/>
    <trip id="42" type="passenger" depart="42.00" from="143655835#0" to="-5974128"/>
    <trip id="43" type="passenger" depart="43.00" from="gneE17.147" to="49187078#3"/>
    <trip id="44" type="passenger" depart="44.00" from="-50846720#2" to="-143655838"/>
    <trip id="45" type="passenger" depart="45.00" from="-50846720#6.20" to="50846724#1"/>
    <trip id="46" type="passenger" depart="46.00" from="5971039#2" to="243728741#4"/>
    <trip id="47" type="passenger" depart="47.00" from="-28749905" to="143329356#1"/>
    <trip id="48" type="passenger" depart="48.00" from="gneE17.147" to="49187078#5.22"/>
    <trip id="49" type="passenger" depart="49.00" from="76697655#0" to="5979291#1"/>
    <trip id="50" type="passenger" depart="50.00" from="-142865467" to="50846755#3.145"/>
    <trip id="51" type="passenger" depart="51.00" from="50846755#0.517" to="49187078#5.22"/>
    <trip id="52" type="passenger" depart="52.00" from="-5986247#2" to="50846726#1"/>
    <trip id="53" type="passenger" depart="53.00" from="-50846720#6.20" to="243728742#2.0"/>
    <trip id="54" type="passenger" depart="54.00" from="244626192#0" to="5991369#1"/>
    <trip id="55" type="passenger" depart="55.00" from="5982169#0" to="-5986247#0"/>
    <trip id="56" type="passenger" depart="56.00" from="49187078#1" to="-5971039#2"/>
    <trip id="57" type="passenger" depart="57.00" from="5984107" to="5979291#1"/>
    <trip id="58" type="passenger" depart="58.00" from="-5991368#2" to="50846726#0"/>
    <trip id="59" type="passenger" depart="59.00" from="50846720#6" to="-5968215#0"/>
    <trip id="60" type="passenger" depart="60.00" from="5968215#0" to="49187078#5.22"/>
    <trip id="61" type="passenger" depart="61.00" from="5968215#2" to="49187078#5.22"/>
    <trip id="62" type="passenger" depart="62.00" from="-142530979" to="116069075#0"/>
    <trip id="63" type="passenger" depart="63.00" from="-143329356#0" to="5988429#0"/>
    <trip id="64" type="passenger" depart="64.00" from="5982169#0" to="5976858#0"/>
    <trip id="65" type="passenger" depart="65.00" from="-5991369#3" to="-244626184#2"/>
    <trip id="66" type="passenger" depart="66.00" from="5982169#0" to="5991176"/>
    <trip id="67" type="passenger" depart="67.00" from="-50846720#12" to="363235688#0"/>
    <trip id="68" type="passenger" depart="68.00" from="-50846713#1" to="5968215#0"/>
    <trip id="69" type="passenger" depart="69.00" from="5968215#0" to="-50846782#0"/>
    <trip id="70" type="passenger" depart="70.00" from="244626213#3" to="49187078#5.22"/>
    <trip id="71" type="passenger" depart="71.00" from="-5986247#1" to="5982169#0"/>
    <trip id="72" type="passenger" depart="72.00" from="243728741#4" to="-5972515"/>
    <trip id="73" type="passenger" depart="73.00" from="49187078#5.22" to="50846755#4"/>
    <trip id="74" type="passenger" depart="74.00" from="-5972214#0" to="-76697654#3"/>
    <trip id="75" type="passenger" depart="75.00" from="gneE17" to="50846749"/>
    <trip id="76" type="passenger" depart="76.00" from="243728742#1" to="49187078#3"/>
    <trip id="77" type="passenger" depart="77.00" from="-50846720#8" to="-5976858#0"/>
    <trip id="78" type="passenger" depart="78.00" from="116069075#1" to="50846720#2"/>
    <trip id="79" type="passenger" depart="79.00" from="-5976858#1" to="-5976247"/>
    <trip id="80" type="passenger" depart="80.00" from="-50846713#2" to="50846724#1"/>
    <trip id="81" type="passenger" depart="81.00" from="-5976858#1" to="5982169#2"/>
    <trip id="82" type="passenger" depart="82.00" from="5979291#1" to="-50846720#1.35"/>
    <trip id="83" type="passenger" depart="83.00" from="-5977975" to="50846755#0"/>
    <trip id="84" type="passenger" depart="84.00" from="-5972515" to="-50846782#1"/>
    <trip id="85" type="passenger" depart="85.00" from="5988429#0" to="50846720#1"/>
    <trip id="86" type="passenger" depart="86.00" from="244626213#3" to="5971039#2"/>
    <trip id="87" type="passenger" depart="87.00" from="5972211#1" to="-5971039#3"/>
    <trip id="88" type="passenger" depart="88.00" from="-50846720#3" to="243728742#1"/>
    <trip id="89" type="passenger" depart="89.00" from="243728741#4" to="26467810"/>
    <trip id="90" type="passenger" depart="90.00" from="50846755#4" to="50846755#0"/>
    <trip id="91" type="passenger" depart="91.00" from="89534893" to="-50846720#4"/>
    <trip id="92" type="passenger" depart="92.00" from="143655835#1" to="116069075#1"/>
    <trip id="93" type="passenger" depart="93.00" from="5979291#1" to="-5979291#1"/>
    <trip id="94" type="passenger" depart="94.00" from="-5972211#1" to="244626184#2"/>
    <trip id="95" type="passenger" depart="95.00" from="243728741#3.83" to="-5988429#0"/>
    <trip id="96" type="passenger" depart="96.00" from="-5979291#1" to="5987392"/>
    <trip id="97" type="passenger" depart="97.00" from="244626184#0" to="5979291#1"/>
    <trip id="98" type="passenger" depart="98.00" from="49187078#5.22" to="-143655838"/>
    <trip id="99" type="passenger" depart="99.00" from="gneE17.147" to="5976858#1"/>
    <trip id="100" type="passenger" depart="100.00" from="76697654#2" to="5987516"/>
    <trip id="101" type="passenger" depart="101.00" from="5976858#1" to="-5968278"/>
    <trip id="102" type="passenger" depart="102.00" from="28750028" to="-5974128"/>
    <trip id="103" type="passenger" depart="103.00" from="143655835#0" to="-244626184#2"/>
    <trip id="104" type="passenger" depart="104.00" from="143329356#0" to="89534893"/>
    <trip id="105" type="passenger" depart="105.00" from="-5986247#1" to="5971039#2"/>
    <trip id="106" type="passenger" depart="106.00" from="244626192#0" to="243728742#0"/>
    <trip id="107" type="passenger" depart="107.00" from="76697577" to="gneE17.147"/>
    <trip id="108" type="passenger" depart="108.00" from="49187078#5.22" to="50846755#3.145"/>
    <trip id="109" type="passenger" depart="109.00" from="-5968215#0" to="-5991369#0"/>
    <trip id="110" type="passenger" depart="110.00" from="76697654#2" to="50846720#12"/>
    <trip id="111" type="passenger" depart="111.00" from="49187078#5.22" to="5967060"/>
    <trip id="112" type="passenger" depart="112.00" from="-244626184#2" to="50846720#2"/>
    <trip id="113" type="passenger" depart="113.00" from="49187078#1" to="5978540"/>
    <trip id="114" type="passenger" depart="114.00" from="-5968215#0" to="76697634#1"/>
    <trip id="115" type="passenger" depart="115.00" from="-50846720#10" to="-5971039#3"/>
    <trip id="116" type="passenger" depart="116.00" from="50846720#2" to="50846755#0"/>
    <trip id="117" type="passenger" depart="117.00" from="-5976858#1" to="-50846720#8"/>
    <trip id="118" type="passenger" depart="118.00" from="5982169#1" to="-5979291#1"/>
    <trip id="119" type="passenger" depart="119.00" from="50846720#2" to="50846720#9"/>
    <trip id="120" type="passenger" depart="120.00" from="243728741#3" to="50846720#2"/>
    <trip id="121" type="passenger" depart="121.00" from="49187078#3" to="5988429#1"/>
    <trip id="122" type="passenger" depart="122.00" from="-5972214#1" to="50846755#3"/>
    <trip id="123" type="passenger" depart="123.00" from="-5977975" to="143655835#0"/>
    <trip id="124" type="passenger" depart="124.00" from="50846755#0" to="-5991369#1"/>
    <trip id="125" type="passenger" depart="125.00" from="-76697654#3" to="5967694"/>
    <trip id="126" type="passenger" depart="126.00" from="-50846720#1" to="244626213#2"/>
    <trip id="127" type="passenger" depart="127.00" from="gneE17.147" to="gneE17.147"/>
    <trip id="128" type="passenger" depart="128.00" from="-50846720#1" to="-5972515"/>
    <trip id="129" type="passenger" depart="129.00" from="-5986247#1" to="5988429#0"/>
    <trip id="130" type="passenger" depart="130.00" from="5982169#0" to="5982169#0"/>
    <trip id="131" type="passenger" depart="131.00" from="142530980" to="-5968215#0"/>
    <trip id="132" type="passenger" depart="132.00" from="5976247" to="50846755#2.0"/>
    <trip id="133" type="passenger" depart="133.00" from="50846720#6" to="89534893"/>
    <trip id="134" type="passenger" depart="134.00" from="50846753.54" to="-142865467"/>
    <trip id="135" type="passenger" depart="135.00" from="5972214#0" to="-5991369#1"/>
    <trip id="136" type="passenger" depart="136.00" from="50846755#0" to="5988429#1"/>
    <trip id="137" type="passenger" depart="137.00" from="-50846782#1" to="-50846720#8"/>
    <trip id="138" type="passenger" depart="138.00" from="-50846720#4" to="49187078#5.22"/>
    <trip id="139" type="passenger" depart="139.00" from="-5987392" to="50846720#6"/>
    <trip id="140" type="passenger" depart="140.00" from="50846755#3.145" to="-5972214#0"/>
    <trip id="141" type="passenger" depart="141.00" from="50846726#0" to="-5986247#1"/>
    <trip id="142" type="passenger" depart="142.00" from="28750028" to="5982169#2"/>
    <trip id="143" type="passenger" depart="143.00" from="5976858#1" to="-50846720#2"/>
    <trip id="144" type="passenger" depart="144.00" from="243728741#4" to="-5988429#0"/>
    <trip id="145" type="passenger" depart="145.00" from="-142530979" to="5968215#2"/>
    <trip id="146" type="passenger" depart="146.00" from="50846726#0" to="-5984107"/>
    <trip id="147" type="passenger" depart="147.00" from="50846782#2" to="49187078#5.22"/>
    <trip id="148" type="passenger" depart="148.00" from="243728741#4" to="-142865467"/>
    <trip id="149" type="passenger" depart="149.00" from="-50846720#1.35" to="5982169#0"/>
    <trip id="150" type="passenger" depart="150.00" from="5982169#2" to="49187078#5.22"/>
    <trip id="151" type="passenger" depart="151.00" from="5976247" to="50846720#2"/>
    <trip id="152" type="passenger" depart="152.00" from="-5968215#0" to="-50846769"/>
    <trip id="153" type="passenger" depart="153.00" from="-5991369#3" to="5982169#1"/>
    <trip id="154" type="passenger" depart="154.00" from="5971039#3" to="5979291#1"/>
    <trip id="155" type="passenger" depart="155.00" from="5982169#1" to="-5972515"/>
    <trip id="156" type="passenger" depart="156.00" from="-5979291#1" to="-50846720#4"/>
    <trip id="157" type="passenger" depart="157.00" from="5968278" to="5982169#0"/>
    <trip id="158" type="passenger" depart="158.00" from="143655840#1" to="50846720#9"/>
    <trip id="159" type="passenger" depart="159.00" from="-5968215#0" to="5988429#0"/>
    <trip id="160" type="passenger" depart="160.00" from="5979291#1" to="76697656#1"/>
    <trip id="161" type="passenger" depart="161.00" from="5972211#1" to="5982169#0"/>
    <trip id="162" type="passenger" depart="162.00" from="-143329356#1" to="50846765"/>
    <trip id="163" type="passenger" depart="163.00" from="116069075#0" to="5988429#0"/>
    <trip id="164" type="passenger" depart="164.00" from="5971039#3" to="5979291#1"/>
    <trip id="165" type="passenger" depart="165.00" from="5972211#1" to="-5986247#2"/>
    <trip id="166" type="passenger" depart="166.00" from="5971039#1" to="-50846720#6.20"/>
    <trip id="167" type="passenger" depart="167.00" from="5982169#0" to="5979291#1"/>
    <trip id="168" type="passenger" depart="168.00" from="-5976858#0" to="5972515"/>
    <trip id="169" type="passenger" depart="169.00" from="244626192#2" to="-76697654#0"/>
    <trip id="170" type="passenger" depart="170.00" from="5971039#3" to="-5976858#1"/>
    <trip id="171" type="passenger" depart="171.00" from="-143329356#0" to="-5972211#1"/>
    <trip id="172" type="passenger" depart="172.00" from="116069075#0" to="5979291#1"/>
    <trip id="173" type="passenger" depart="173.00" from="76697654#2" to="-5988429#0"/>
    <trip id="174" type="passenger" depart="174.00" from="50846726#1" to="143655840#1"/>
    <trip id="175" type="passenger" depart="175.00" from="89534893" to="49187078#5.22"/>
    <trip id="176" type="passenger" depart="176.00" from="5988429#1" to="-50846720#8"/>
    <trip id="177" type="passenger" depart="177.00" from="76697655#0" to="-5971039#2"/>
    <trip id="178" type="passenger" depart="178.00" from="76697654#0" to="-5986247#1"/>
    <trip id="179" type="passenger" depart="179.00" from="-50846720#6.20" to="243728742#2.0"/>
    <trip id="180" type="passenger" depart="180.00" from="50846755#4" to="-89534885"/>
    <trip id="181" type="passenger" depart="181.00" from="50846720#4.128" to="49187078#3"/>
    <trip id="182" type="passenger" depart="182.00" from="143329356#1" to="50846720#12"/>
    <trip id="183" type="passenger" depart="183.00" from="-5979291#1" to="50846755#2.0"/>
    <trip id="184" type="passenger" depart="184.00" from="-142530979" to="5987516"/>
    <trip id="185" type="passenger" depart="185.00" from="49187078#5.22" to="50846755#3.145"/>
    <trip id="186" type="passenger" depart="186.00" from="50846782#2" to="50846755#0"/>
    <trip id="187" type="passenger" depart="187.00" from="116069261" to="-50846720#1"/>
    <trip id="188" type="passenger" depart="188.00" from="50846755#0" to="116069075#0"/>
    <trip id="189" type="passenger" depart="189.00" from="-76697654#2" to="5978540"/>
    <trip id="190" type="passenger" depart="190.00" from="50846755#3.145" to="-5991369#1"/>
    <trip id="191" type="passenger" depart="191.00" from="-76697654#0" to="231975294"/>
    <trip id="192" type="passenger" depart="192.00" from="143655835#1" to="-5991369#0"/>
    <trip id="193" type="passenger" depart="193.00" from="-50846762" to="243728741#4"/>
    <trip id="194" type="passenger" depart="194.00" from="5988429#1" to="50846755#0"/>
    <trip id="195" type="passenger" depart="195.00" from="5982169#1" to="50846720#8"/>
    <trip id="196" type="passenger" depart="196.00" from="-5991369#1" to="49187078#5.22"/>
    <trip id="197" type="passenger" depart="197.00" from="-142530979" to="-5988429#2"/>
    <trip id="198" type="passenger" depart="198.00" from="243728742#0.25" to="50846720#12"/>
    <trip id="199" type="passenger" depart="199.00" from="50846753.54" to="244626213#3"/>
    <trip id="200" type="passenger" depart="200.00" from="244626184#0" to="-5974128"/>
    <trip id="201" type="passenger" depart="201.00" from="244626213#3" to="5982169#1"/>
    <trip id="202" type="passenger" depart="202.00" from="5971039#3" to="-5971039#0"/>
    <trip id="203" type="passenger" depart="203.00" from="-50846720#12" to="49187078#3"/>
    <trip id="204" type="passenger" depart="204.00" from="50846726#0" to="116069075#0"/>
    <trip id="205" type="passenger" depart="205.00" from="5972214#0" to="5967694"/>
    <trip id="206" type="passenger" depart="206.00" from="50846755#0" to="-5976858#0"/>
    <trip id="207" type="passenger" depart="207.00" from="-5972211#1" to="-143329356#0"/>
    <trip id="208" type="passenger" depart="208.00" from="-5978993" to="28749853"/>
    <trip id="209" type="passenger" depart="209.00" from="5976858#1" to="-50846720#1.35"/>
    <trip id="210" type="passenger" depart="210.00" from="243728741#0" to="50846724#1"/>
    <trip id="211" type="passenger" depart="211.00" from="-5972211#1" to="50846755#2.0"/>
    <trip id="212" type="passenger" depart="212.00" from="387597533" to="-5979291#1"/>
    <trip id="213" type="passenger" depart="213.00" from="50846755#0" to="-142530979"/>
    <trip id="214" type="passenger" depart="214.00" from="5965599#0" to="5968215#0.389"/>
    <trip id="215" type="passenger" depart="215.00" from="-50846720#4" to="243728742#0.50"/>
    <trip id="216" type="passenger" depart="216.00" from="-5971039#2" to="5991369#3"/>
    <trip id="217" type="passenger" depart="217.00" from="49187078#3" to="-143655838"/>
    <trip id="218" type="passenger" depart="218.00" from="-5979291#1" to="5978540"/>
    <trip id="219" type="passenger" depart="219.00" from="244626192#0" to="5972211#1"/>
    <trip id="220" type="passenger" depart="220.00" from="50846755#0" to="89534893"/>
    <trip id="221" type="passenger" depart="221.00" from="50846720#2" to="5991369#0"/>
    <trip id="222" type="passenger" depart="222.00" from="5982169#1" to="50846720#7"/>
    <trip id="223" type="passenger" depart="223.00" from="50846755#3.145" to="49187078#3"/>
    <trip id="224" type="passenger" depart="224.00" from="5974128" to="49187078#5.22"/>
    <trip id="225" type="passenger" depart="225.00" from="5982169#1" to="50846782#2"/>
    <trip id="226" type="passenger" depart="226.00" from="244626213#3" to="-5984107"/>
    <trip id="227" type="passenger" depart="227.00" from="-5979291#1" to="50846726#0"/>
    <trip id="228" type="passenger" depart="228.00" from="5968215#0" to="49187078#3"/>
    <trip id="229" type="passenger" depart="229.00" from="50846720#9" to="-5988429#0"/>
    <trip id="230" type="passenger" depart="230.00" from="-50846720#10" to="-5988429#1"/>
    <trip id="231" type="passenger" depart="231.00" from="-5986247#2" to="116069075#0"/>
    <trip id="232" type="passenger" depart="232.00" from="49187078#5.22" to="-5965599#0"/>
    <trip id="233" type="passenger" depart="233.00" from="-5976858#1" to="50846755#2.0"/>
    <trip id="234" type="passenger" depart="234.00" from="50846755#2.0" to="-244626184#2"/>
    <trip id="235" type="passenger" depart="235.00" from="143655852" to="49187078#5.22"/>
    <trip id="236" type="passenger" depart="236.00" from="243728741#2" to="-5972515"/>
    <trip id="237" type="passenger" depart="237.00" from="243728741#3" to="5982169#2"/>
    <trip id="238" type="passenger" depart="238.00" from="50846720#12" to="50846755#2.0"/>
    <trip id="239" type="passenger" depart="239.00" from="5979291#1" to="5968215#0"/>
    <trip id="240" type="passenger" depart="240.00" from="143329356#0" to="-142530979"/>
    <trip id="241" type="passenger" depart="241.00" from="116069075#1.264" to="5968215#0"/>
    <trip id="242" type="passenger" depart="242.00" from="5977975" to="5991369#1"/>
    <trip id="243" type="passenger" depart="243.00" from="243728741#3" to="5967060"/>
    <trip id="244" type="passenger" depart="244.00" from="49187078#5.22" to="50846720#6"/>
    <trip id="245" type="passenger" depart="245.00" from="-5976858#0" to="-5974128"/>
    <trip id="246" type="passenger" depart="246.00" from="243728742#1" to="-143329356#0"/>
    <trip id="247" type="passenger" depart="247.00" from="116069075#0" to="50846755#0.517"/>
    <trip id="248" type="passenger" depart="248.00" from="143655840#1" to="-5968215#2"/>
    <trip id="249" type="passenger" depart="249.00" from="244626213#2" to="-50846769"/>
    <trip id="250" type="passenger" depart="250.00" from="50846720#8" to="-143329356#0"/>
    <trip id="251" type="passenger" depart="251.00" from="143655135#1" to="50846713#1"/>
    <trip id="252" type="passenger" depart="252.00" from="-143329356#1" to="50846726#1"/>
    <trip id="253" type="passenger" depart="253.00" from="-50846782#1" to="244626213#2"/>
    <trip id="254" type="passenger" depart="254.00" from="-231975294" to="143329356#0"/>
    <trip id="255" type="passenger" depart="255.00" from="-5972515" to="116069075#0"/>
    <trip id="256" type="passenger" depart="256.00" from="5968215#0" to="143329356#0"/>
    <trip id="257" type="passenger" depart="257.00" from="5965599#0" to="5976858#1"/>
    <trip id="258" type="passenger" depart="258.00" from="-5979291#1" to="-50846720#12"/>
    <trip id="259" type="passenger" depart="259.00" from="-143329356#0" to="49187078#5.22"/>
    <trip id="260" type="passenger" depart="260.00" from="gneE17.147" to="116069075#1.264"/>
    <trip id="261" type="passenger" depart="261.00" from="50846753" to="5971039#2"/>
    <trip id="262" type="passenger" depart="262.00" from="50846753.54" to="5968215#0"/>
    <trip id="263" type="passenger" depart="263.00" from="5991369#0" to="-5972211#1"/>
    <trip id="264" type="passenger" depart="264.00" from="-143329356#0" to="-5968215#0"/>
    <trip id="265" type="passenger" depart="265.00" from="-50846762" to="50846755#0"/>
    <trip id="266" type="passenger" depart="266.00" from="50846710#1" to="-5974128"/>
    <trip id="267" type="passenger" depart="267.00" from="50846755#2.0" to="5968215#0"/>
    <trip id="268" type="passenger" depart="268.00" from="-5968215#3" to="50846720#6"/>
    <trip id="269" type="passenger" depart="269.00" from="5965584" to="-50846720#7"/>
    <trip id="270" type="passenger" depart="270.00" from="5972515" to="76697654#1"/>
    <trip id="271" type="passenger" depart="271.00" from="-50846720#6" to="-143329356#0"/>
    <trip id="272" type="passenger" depart="272.00" from="-76697654#1" to="50846755#0"/>
    <trip id="273" type="passenger" depart="273.00" from="76697634#1" to="143655835#1"/>
    <trip id="274" type="passenger" depart="274.00" from="50846755#3" to="-50846720#10"/>
    <trip id="275" type="passenger" depart="275.00" from="50846755#2.0" to="50846724#0"/>
    <trip id="276" type="passenger" depart="276.00" from="-50846720#4" to="5968215#2"/>
    <trip id="277" type="passenger" depart="277.00" from="5976858#1" to="50846720#4.128"/>
    <trip id="278" type="passenger" depart="278.00" from="-50846720#8" to="89534893"/>
    <trip id="279" type="passenger" depart="279.00" from="5971039#0" to="116069075#1"/>
    <trip id="280" type="passenger" depart="280.00" from="243728741#4" to="142865480"/>
    <trip id="281" type="passenger" depart="281.00" from="49187078#3" to="116069075#1"/>
    <trip id="282" type="passenger" depart="282.00" from="5976858#1" to="5972515"/>
    <trip id="283" type="passenger" depart="283.00" from="-50846720#4" to="76697634#1"/>
    <trip id="284" type="passenger" depart="284.00" from="50846726#0" to="5976858#0"/>
    <trip id="285" type="passenger" depart="285.00" from="50846755#2.0" to="243728742#2.0"/>
    <trip id="286" type="passenger" depart="286.00" from="50846765" to="76697654#1"/>
    <trip id="287" type="passenger" depart="287.00" from="-5986247#2" to="5972214#0"/>
    <trip id="288" type="passenger" depart="288.00" from="49187078#5.22" to="363235688#0"/>
    <trip id="289" type="passenger" depart="289.00" from="243728742#1" to="50846755#4"/>
    <trip id="290" type="passenger" depart="290.00" from="-5986247#2" to="5978540"/>
    <trip id="291" type="passenger" depart="291.00" from="5974128" to="-50846720#2"/>
    <trip id="292" type="passenger" depart="292.00" from="5982169#0" to="-5979291#1"/>
    <trip id="293" type="passenger" depart="293.00" from="244626213#0" to="50846720#6"/>
    <trip id="294" type="passenger" depart="294.00" from="143329356#0" to="-143329356#0"/>
    <trip id="295" type="passenger" depart="295.00" from="5976858#1" to="-5971039#3"/>
    <trip id="296" type="passenger" depart="296.00" from="-5972515" to="5972211#1"/>
    <trip id="297" type="passenger" depart="297.00" from="116069075#1" to="5982169#0"/>
    <trip id="298" type="passenger" depart="298.00" from="50846755#2.0" to="-5988429#0"/>
    <trip id="299" type="passenger" depart="299.00" from="-142865467" to="5991368#1"/>
    <trip id="300" type="passenger" depart="300.00" from="-50846720#12" to="50846755#3.145"/>
    <trip id="301" type="passenger" depart="301.00" from="363235688#0" to="5968215#0"/>
    <trip id="302" type="passenger" depart="302.00" from="50846755#2.0" to="50846744"/>
    <trip id="303" type="passenger" depart="303.00" from="363235688#0" to="5971039#3"/>
    <trip id="304" type="passenger" depart="304.00" from="-50846720#2" to="-5976858#0"/>
    <trip id="305" type="passenger" depart="305.00" from="50846755#2.0" to="-76697654#1"/>
    <trip id="306" type="passenger" depart="306.00" from="50846720#11" to="26467810.54"/>
    <trip id="307" type="passenger" depart="307.00" from="49187078#5.0" to="243728742#0.50"/>
    <trip id="308" type="passenger" depart="308.00" from="5965584" to="116069075#0"/>
    <trip id="309" type="passenger" depart="309.00" from="50846755#2.0" to="-5986247#2"/>
    <trip id="310" type="passenger" depart="310.00" from="-5979291#1" to="-50846720#8"/>
    <trip id="311" type="passenger" depart="311.00" from="-5972211#1" to="-50846720#8"/>
    <trip id="312" type="passenger" depart="312.00" from="49187078#5.22" to="5968215#0"/>
    <trip id="313" type="passenger" depart="313.00" from="-5971039#3" to="-5974128"/>
    <trip id="314" type="passenger" depart="314.00" from="26524637" to="50846755#3.65"/>
    <trip id="315" type="passenger" depart="315.00" from="76697656#2" to="49187078#5.0"/>
    <trip id="316" type="passenger" depart="316.00" from="-5988429#0" to="-50846720#4"/>
    <trip id="317" type="passenger" depart="317.00" from="-5972211#1" to="-5976858#1"/>
    <trip id="318" type="passenger" depart="318.00" from="-5971039#3" to="-142865467"/>
    <trip id="319" type="passenger" depart="319.00" from="49187078#5.22" to="-5988429#0"/>
    <trip id="320" type="passenger" depart="320.00" from="76697656#1" to="49187078#5.22"/>
    <trip id="321" type="passenger" depart="321.00" from="50846755#2.0" to="-50846769"/>
    <trip id="322" type="passenger" depart="322.00" from="5979291#1" to="49187078#0"/>
    <trip id="323" type="passenger" depart="323.00" from="5982169#0" to="50846720#10"/>
    <trip id="324" type="passenger" depart="324.00" from="244626213#2" to="243728742#4"/>
    <trip id="325" type="passenger" depart="325.00" from="-5971039#3" to="-143655853"/>
    <trip id="326" type="passenger" depart="326.00" from="5988429#2" to="28749905"/>
    <trip id="327" type="passenger" depart="327.00" from="5972515" to="143655840#1"/>
    <trip id="328" type="passenger" depart="328.00" from="-50846720#1.35" to="50846724#1"/>